<?xml version="1.0" encoding="UTF-8"?>

<!-- generated on 07/17/20 16:26:25 by Eclipse SUMO netedit Version 1.5.0
<configuration xmlns:xsi="http://www.w3.org/2001/XMLSchema-instance" xsi:noNamespaceSchemaLocation="http://sumo.dlr.de/xsd/netconvertConfiguration.xsd">

    <input>
        <sumo-net-file value="D:\Google%20Drive\Uni\FYP\ClientApp\melbourne.net.xml"/>
    </input>

    <output>
        <output-file value="D:\Google%20Drive\Uni\FYP\ClientApp\melbourne.net.xml"/>
    </output>

    <processing>
        <geometry.min-radius.fix.railways value="false"/>
        <geometry.max-grade.fix value="false"/>
        <offset.disable-normalization value="true"/>
        <lefthand value="true"/>
    </processing>

    <junctions>
        <no-turnarounds value="true"/>
        <junctions.corner-detail value="5"/>
        <junctions.limit-turn-speed value="5.5"/>
        <rectangular-lane-cut value="false"/>
    </junctions>

    <pedestrian>
        <walkingareas value="false"/>
    </pedestrian>

    <report>
        <aggregate-warnings value="5"/>
    </report>

</configuration>
-->

<net version="1.3" junctionCornerDetail="5" lefthand="true" limitTurnSpeed="5.50" xmlns:xsi="http://www.w3.org/2001/XMLSchema-instance" xsi:noNamespaceSchemaLocation="http://sumo.dlr.de/xsd/net_file.xsd">

    <location netOffset="-319930.51,4188199.96" convBoundary="0.00,0.00,2859.79,1725.03" origBoundary="144.924813,-37.840747,144.993057,-37.799329" projParameter="+proj=utm +zone=55 +ellps=WGS84 +datum=WGS84 +units=m +no_defs"/>

    <type id="highway.bridleway" priority="1" numLanes="1" speed="2.78" allow="pedestrian" oneway="1" width="2.00"/>
    <type id="highway.bus_guideway" priority="1" numLanes="1" speed="27.78" allow="bus" oneway="1"/>
    <type id="highway.cycleway" priority="1" numLanes="1" speed="8.33" allow="bicycle" oneway="0" width="1.00"/>
    <type id="highway.footway" priority="1" numLanes="1" speed="2.78" allow="pedestrian" oneway="1" width="2.00"/>
    <type id="highway.ford" priority="1" numLanes="1" speed="2.78" allow="army" oneway="0"/>
    <type id="highway.living_street" priority="2" numLanes="1" speed="2.78" disallow="tram rail_urban rail rail_electric rail_fast ship" oneway="0"/>
    <type id="highway.motorway" priority="14" numLanes="2" speed="39.44" allow="private emergency authority army vip passenger hov taxi bus coach delivery truck trailer motorcycle evehicle custom1 custom2" oneway="1"/>
    <type id="highway.motorway_link" priority="9" numLanes="1" speed="22.22" allow="private emergency authority army vip passenger hov taxi bus coach delivery truck trailer motorcycle evehicle custom1 custom2" oneway="1"/>
    <type id="highway.path" priority="1" numLanes="1" speed="2.78" allow="pedestrian bicycle" oneway="1" width="2.00"/>
    <type id="highway.pedestrian" priority="1" numLanes="1" speed="2.78" allow="pedestrian" oneway="1" width="2.00"/>
    <type id="highway.primary" priority="12" numLanes="2" speed="27.78" disallow="tram rail_urban rail rail_electric rail_fast ship" oneway="0"/>
    <type id="highway.primary_link" priority="7" numLanes="1" speed="22.22" disallow="tram rail_urban rail rail_electric rail_fast ship" oneway="0"/>
    <type id="highway.raceway" priority="15" numLanes="2" speed="83.33" allow="vip" oneway="0"/>
    <type id="highway.residential" priority="3" numLanes="1" speed="13.89" disallow="tram rail_urban rail rail_electric rail_fast ship" oneway="0"/>
    <type id="highway.secondary" priority="11" numLanes="1" speed="27.78" disallow="tram rail_urban rail rail_electric rail_fast ship" oneway="0"/>
    <type id="highway.secondary_link" priority="6" numLanes="1" speed="22.22" disallow="tram rail_urban rail rail_electric rail_fast ship" oneway="0"/>
    <type id="highway.service" priority="1" numLanes="1" speed="5.56" allow="pedestrian delivery bicycle" oneway="0"/>
    <type id="highway.stairs" priority="1" numLanes="1" speed="1.39" allow="pedestrian" oneway="1" width="2.00"/>
    <type id="highway.step" priority="1" numLanes="1" speed="1.39" allow="pedestrian" oneway="1" width="2.00"/>
    <type id="highway.steps" priority="1" numLanes="1" speed="1.39" allow="pedestrian" oneway="1" width="2.00"/>
    <type id="highway.tertiary" priority="10" numLanes="1" speed="22.22" disallow="tram rail_urban rail rail_electric rail_fast ship" oneway="0"/>
    <type id="highway.tertiary_link" priority="5" numLanes="1" speed="22.22" disallow="tram rail_urban rail rail_electric rail_fast ship" oneway="0"/>
    <type id="highway.track" priority="1" numLanes="1" speed="5.56" disallow="tram rail_urban rail rail_electric rail_fast ship" oneway="0"/>
    <type id="highway.trunk" priority="13" numLanes="2" speed="27.78" disallow="pedestrian bicycle tram rail_urban rail rail_electric rail_fast ship" oneway="0"/>
    <type id="highway.trunk_link" priority="8" numLanes="1" speed="22.22" disallow="pedestrian bicycle tram rail_urban rail rail_electric rail_fast ship" oneway="0"/>
    <type id="highway.unclassified" priority="4" numLanes="1" speed="13.89" disallow="tram rail_urban rail rail_electric rail_fast ship" oneway="0"/>
    <type id="highway.unsurfaced" priority="1" numLanes="1" speed="8.33" disallow="tram rail_urban rail rail_electric rail_fast ship" oneway="0"/>
    <type id="railway.highspeed" priority="21" numLanes="1" speed="69.44" allow="rail_fast" oneway="1"/>
    <type id="railway.light_rail" priority="19" numLanes="1" speed="27.78" allow="rail_urban" oneway="1"/>
    <type id="railway.preserved" priority="16" numLanes="1" speed="27.78" allow="rail" oneway="1"/>
    <type id="railway.rail" priority="20" numLanes="1" speed="44.44" allow="rail" oneway="1"/>
    <type id="railway.subway" priority="18" numLanes="1" speed="27.78" allow="rail_urban" oneway="1"/>
    <type id="railway.tram" priority="17" numLanes="1" speed="13.89" allow="tram" oneway="1"/>

    <edge id=":103295653_0" function="internal">
        <lane id=":103295653_0_0" index="0" allow="pedestrian delivery bicycle" speed="3.65" length="4.67" shape="774.35,847.83 774.06,846.42 773.47,845.75 772.58,845.82 771.39,846.63"/>
    </edge>
    <edge id=":103299651_0" function="internal">
        <lane id=":103299651_0_0" index="0" allow="pedestrian delivery bicycle" speed="5.06" length="5.02" shape="704.62,881.84 703.94,883.04 703.04,883.74 701.93,883.94 700.59,883.64"/>
    </edge>
    <edge id=":103299651_1" function="internal">
        <lane id=":103299651_1_0" index="0" allow="pedestrian delivery bicycle" speed="3.65" length="4.67" shape="704.62,881.84 704.93,883.25 705.52,883.91 706.41,883.83 707.60,883.01"/>
    </edge>
    <edge id=":103299651_2" function="internal">
        <lane id=":103299651_2_0" index="0" allow="pedestrian delivery bicycle" speed="5.04" length="5.00" shape="709.36,887.02 708.16,886.35 707.47,885.46 707.28,884.34 707.60,883.01"/>
    </edge>
    <edge id=":103299651_3" function="internal">
        <lane id=":103299651_3_0" index="0" disallow="tram rail_urban rail rail_electric rail_fast ship" speed="11.11" length="9.40" shape="709.36,887.02 700.59,883.64"/>
    </edge>
    <edge id=":103299675_0" function="internal">
        <lane id=":103299675_0_0" index="0" allow="pedestrian delivery bicycle" speed="3.65" length="4.67" shape="727.52,832.27 727.21,830.87 726.61,830.20 725.72,830.28 724.54,831.11"/>
    </edge>
    <edge id=":103301615_0" function="internal">
        <lane id=":103301615_0_0" index="0" allow="pedestrian delivery bicycle" speed="5.04" length="5.00" shape="659.13,864.18 658.46,865.38 657.57,866.07 656.45,866.26 655.12,865.95"/>
    </edge>
    <edge id=":103301615_1" function="internal">
        <lane id=":103301615_1_0" index="0" allow="pedestrian delivery bicycle" speed="3.65" length="4.67" shape="659.13,864.18 659.44,865.59 660.04,866.25 660.93,866.17 662.11,865.34"/>
    </edge>
    <edge id=":103301615_2" function="internal">
        <lane id=":103301615_2_0" index="0" allow="pedestrian delivery bicycle" speed="5.05" length="5.01" shape="663.86,869.37 662.68,868.70 661.99,867.80 661.80,866.68 662.11,865.34"/>
    </edge>
    <edge id=":103301615_3" function="internal">
        <lane id=":103301615_3_0" index="0" disallow="tram rail_urban rail rail_electric rail_fast ship" speed="11.11" length="9.39" shape="663.86,869.37 655.12,865.95"/>
    </edge>
    <edge id=":103301632_0" function="internal">
        <lane id=":103301632_0_0" index="0" allow="pedestrian delivery bicycle" speed="3.65" length="4.67" shape="678.94,821.61 678.63,820.21 678.02,819.55 677.13,819.63 675.96,820.47"/>
    </edge>
    <edge id=":113535179_0" function="internal">
        <lane id=":113535179_0_0" index="0" allow="pedestrian delivery bicycle" speed="5.56" length="9.40" shape="894.61,641.78 891.14,650.53"/>
    </edge>
    <edge id=":113535179_1" function="internal">
        <lane id=":113535179_1_0" index="0" allow="pedestrian delivery bicycle" speed="5.56" length="10.17" shape="894.61,641.78 893.96,644.50 894.33,646.76 895.73,648.59 898.15,649.97"/>
    </edge>
    <edge id=":113535179_2" function="internal">
        <lane id=":113535179_2_0" index="0" allow="pedestrian delivery bicycle" speed="3.65" length="4.67" shape="894.61,641.78 894.91,643.20 895.51,643.86 896.40,643.79 897.59,642.97"/>
    </edge>
    <edge id=":113535179_3" function="internal">
        <lane id=":113535179_3_0" index="0" allow="pedestrian delivery bicycle" speed="5.04" length="5.00" shape="899.33,646.99 898.13,646.31 897.45,645.41 897.26,644.30 897.59,642.97"/>
    </edge>
    <edge id=":113535179_4" function="internal">
        <lane id=":113535179_4_0" index="0" allow="pedestrian delivery bicycle" speed="5.56" length="10.16" shape="899.33,646.99 896.62,646.34 894.35,646.72 892.52,648.11 891.14,650.53"/>
    </edge>
    <edge id=":113535179_5" function="internal">
        <lane id=":113535179_5_0" index="0" allow="pedestrian delivery bicycle" speed="3.65" length="4.67" shape="899.33,646.99 897.92,647.29 897.25,647.89 897.33,648.78 898.15,649.97"/>
    </edge>
    <edge id=":113535179_6" function="internal">
        <lane id=":113535179_6_0" index="0" allow="pedestrian delivery bicycle" speed="5.05" length="5.01" shape="894.12,651.71 894.80,650.52 895.70,649.83 896.81,649.65 898.15,649.97"/>
    </edge>
    <edge id=":113535179_7" function="internal">
        <lane id=":113535179_7_0" index="0" allow="pedestrian delivery bicycle" speed="5.56" length="9.40" shape="894.12,651.71 897.59,642.97"/>
    </edge>
    <edge id=":113535179_8" function="internal">
        <lane id=":113535179_8_0" index="0" allow="pedestrian delivery bicycle" speed="3.65" length="4.67" shape="894.12,651.71 893.82,650.29 893.22,649.63 892.33,649.70 891.14,650.53"/>
    </edge>
    <edge id=":113536277_0" function="internal">
        <lane id=":113536277_0_0" index="0" disallow="tram rail_urban rail rail_electric rail_fast ship" speed="6.51" length="9.02" shape="741.02,644.31 739.80,646.46 738.18,647.71 736.17,648.05 733.77,647.48"/>
    </edge>
    <edge id=":113536277_1" function="internal">
        <lane id=":113536277_1_0" index="0" disallow="tram rail_urban rail rail_electric rail_fast ship" speed="11.11" length="11.18" shape="744.18,651.56 733.77,647.48"/>
    </edge>
    <edge id=":113541105_0" function="internal">
        <lane id=":113541105_0_0" index="0" allow="pedestrian delivery bicycle" speed="5.07" length="5.05" shape="801.05,670.49 800.35,671.71 799.45,672.41 798.33,672.61 797.00,672.30"/>
    </edge>
    <edge id=":113541105_1" function="internal">
        <lane id=":113541105_1_0" index="0" allow="pedestrian delivery bicycle" speed="3.65" length="4.67" shape="801.05,670.49 801.34,671.91 801.94,672.57 802.83,672.50 804.02,671.69"/>
    </edge>
    <edge id=":113541105_2" function="internal">
        <lane id=":113541105_2_0" index="0" allow="pedestrian delivery bicycle" speed="5.02" length="5.02" shape="805.77,675.70 804.57,675.03 803.87,674.14 803.69,673.02 804.02,671.69"/>
    </edge>
    <edge id=":113541105_3" function="internal">
        <lane id=":113541105_3_0" index="0" disallow="tram rail_urban rail rail_electric rail_fast ship" speed="11.11" length="9.41" shape="805.77,675.70 797.00,672.30"/>
    </edge>
    <edge id=":113541119_0" function="internal">
        <lane id=":113541119_0_0" index="0" allow="pedestrian delivery bicycle" speed="3.65" length="4.67" shape="820.29,630.96 819.99,629.55 819.39,628.88 818.50,628.96 817.31,629.78"/>
    </edge>
    <edge id=":114569880_0" function="internal">
        <lane id=":114569880_0_0" index="0" allow="pedestrian delivery bicycle" speed="3.65" length="4.67" shape="1021.52,699.68 1020.11,699.98 1019.44,700.58 1019.52,701.47 1020.34,702.66"/>
    </edge>
    <edge id=":114577436_0" function="internal">
        <lane id=":114577436_0_0" index="0" allow="pedestrian delivery bicycle" speed="3.65" length="4.67" shape="1069.75,730.54 1069.44,729.13 1068.84,728.47 1067.95,728.55 1066.77,729.38"/>
    </edge>
    <edge id=":114583003_0" function="internal">
        <lane id=":114583003_0_0" index="0" allow="pedestrian delivery bicycle" speed="5.01" length="5.03" shape="1074.43,777.80 1073.78,779.02 1072.90,779.73 1071.78,779.93 1070.43,779.61"/>
    </edge>
    <edge id=":114583003_1" function="internal">
        <lane id=":114583003_1_0" index="0" allow="pedestrian delivery bicycle" speed="3.65" length="4.67" shape="1074.43,777.80 1074.77,779.20 1075.39,779.85 1076.28,779.75 1077.44,778.89"/>
    </edge>
    <edge id=":114583003_2" function="internal">
        <lane id=":114583003_2_0" index="0" allow="pedestrian delivery bicycle" speed="5.13" length="5.11" shape="1079.19,783.04 1078.01,782.36 1077.33,781.45 1077.14,780.29 1077.44,778.89"/>
    </edge>
    <edge id=":114583003_3" function="internal">
        <lane id=":114583003_3_0" index="0" disallow="tram rail_urban rail rail_electric rail_fast ship" speed="11.11" length="9.40" shape="1079.19,783.04 1070.43,779.61"/>
    </edge>
    <edge id=":114583011_0" function="internal">
        <lane id=":114583011_0_0" index="0" allow="pedestrian delivery bicycle" speed="3.65" length="4.67" shape="1089.92,744.29 1089.58,742.89 1088.96,742.25 1088.07,742.35 1086.92,743.21"/>
    </edge>
    <edge id=":114607245_0" function="internal">
        <lane id=":114607245_0_0" index="0" disallow="tram rail_urban rail rail_electric rail_fast ship" speed="6.49" length="8.95" shape="957.06,729.02 955.85,731.14 954.24,732.37 952.24,732.70 949.85,732.14"/>
    </edge>
    <edge id=":114607245_1" function="internal">
        <lane id=":114607245_1_0" index="0" disallow="tram rail_urban rail rail_electric rail_fast ship" speed="2.78" length="4.67" shape="957.06,729.02 957.34,730.43 957.93,731.11 958.82,731.04 960.02,730.24"/>
    </edge>
    <edge id=":114607245_2" function="internal">
        <lane id=":114607245_2_0" index="0" disallow="tram rail_urban rail rail_electric rail_fast ship" speed="6.46" length="8.92" shape="963.03,737.45 960.94,736.26 959.74,734.66 959.43,732.65 960.02,730.24"/>
    </edge>
    <edge id=":114607245_3" function="internal">
        <lane id=":114607245_3_0" index="0" disallow="tram rail_urban rail rail_electric rail_fast ship" speed="11.11" length="14.21" shape="963.03,737.45 949.85,732.14"/>
    </edge>
    <edge id=":114607252_0" function="internal">
        <lane id=":114607252_0_0" index="0" disallow="tram rail_urban rail rail_electric rail_fast ship" speed="2.78" length="4.67" shape="976.48,688.46 976.17,687.05 975.58,686.38 974.69,686.46 973.50,687.28"/>
    </edge>
    <edge id=":114607264_0" function="internal">
        <lane id=":114607264_0_0" index="0" allow="pedestrian delivery bicycle" speed="5.11" length="5.08" shape="973.58,738.13 972.86,739.35 971.94,740.06 970.82,740.27 969.49,739.97"/>
    </edge>
    <edge id=":114607264_1" function="internal">
        <lane id=":114607264_1_0" index="0" allow="pedestrian delivery bicycle" speed="3.65" length="4.67" shape="973.58,738.13 973.86,739.54 974.44,740.22 975.33,740.16 976.53,739.36"/>
    </edge>
    <edge id=":114607264_2" function="internal">
        <lane id=":114607264_2_0" index="0" allow="pedestrian delivery bicycle" speed="5.02" length="5.02" shape="978.24,743.40 977.04,742.71 976.36,741.81 976.19,740.69 976.53,739.36"/>
    </edge>
    <edge id=":114607264_3" function="internal">
        <lane id=":114607264_3_0" index="0" disallow="tram rail_urban rail rail_electric rail_fast ship" speed="11.11" length="9.39" shape="978.24,743.40 969.49,739.97"/>
    </edge>
    <edge id=":114607279_0" function="internal">
        <lane id=":114607279_0_0" index="0" allow="pedestrian delivery bicycle" speed="3.65" length="4.67" shape="994.18,693.86 993.87,692.45 993.27,691.79 992.38,691.87 991.20,692.70"/>
    </edge>
    <edge id=":120947918_0" function="internal">
        <lane id=":120947918_0_0" index="0" allow="pedestrian delivery bicycle" speed="5.59" length="6.37" shape="1293.39,867.51 1291.54,866.57 1290.37,865.48 1289.91,864.26 1290.13,862.89"/>
    </edge>
    <edge id=":120947918_1" function="internal">
        <lane id=":120947918_1_0" index="0" disallow="tram rail_urban rail rail_electric rail_fast ship" speed="11.11" length="9.40" shape="1293.39,867.51 1284.65,864.05"/>
    </edge>
    <edge id=":120947918_2" function="internal">
        <lane id=":120947918_2_0" index="0" allow="pedestrian delivery bicycle" speed="6.06" length="7.82" shape="1293.39,867.51 1290.74,866.68 1288.69,866.51 1287.24,867.01 1286.39,868.18"/>
    </edge>
    <edge id=":120947918_3" function="internal">
        <lane id=":120947918_3_0" index="0" allow="pedestrian delivery bicycle" speed="5.56" length="6.52" shape="1289.39,869.30 1289.81,867.44 1289.73,866.08 1289.67,864.73 1290.13,862.89"/>
    </edge>
    <edge id=":120947918_4" function="internal">
        <lane id=":120947918_4_0" index="0" allow="pedestrian delivery bicycle" speed="6.14" length="7.79" shape="1289.39,869.30 1289.50,867.87 1288.75,866.52 1287.13,865.25 1284.65,864.05"/>
    </edge>
    <edge id=":120947918_5" function="internal">
        <lane id=":120947918_5_0" index="0" allow="pedestrian delivery bicycle" speed="3.65" length="4.67" shape="1289.39,869.30 1289.05,867.89 1288.44,867.24 1287.55,867.33 1286.39,868.18"/>
    </edge>
    <edge id=":121159757_0" function="internal">
        <lane id=":121159757_0_0" index="0" allow="pedestrian delivery bicycle" speed="3.65" length="4.67" shape="461.52,1474.57 461.83,1475.98 462.44,1476.63 463.33,1476.55 464.50,1475.71"/>
    </edge>
    <edge id=":126932343_0" function="internal">
        <lane id=":126932343_0_0" index="0" allow="pedestrian delivery bicycle" speed="5.56" length="9.46" shape="1034.01,822.29 1030.62,831.12"/>
    </edge>
    <edge id=":126932343_1" function="internal">
        <lane id=":126932343_1_0" index="0" allow="pedestrian delivery bicycle" speed="5.56" length="10.21" shape="1034.01,822.29 1033.40,824.93 1033.81,827.19 1035.23,829.07 1037.66,830.56"/>
    </edge>
    <edge id=":126932343_2" function="internal">
        <lane id=":126932343_2_0" index="0" allow="pedestrian delivery bicycle" speed="3.65" length="4.67" shape="1034.01,822.29 1034.31,823.69 1034.91,824.36 1035.81,824.28 1036.99,823.45"/>
    </edge>
    <edge id=":126932343_3" function="internal">
        <lane id=":126932343_3_0" index="0" allow="pedestrian delivery bicycle" speed="5.21" length="5.22" shape="1038.96,827.64 1037.68,826.86 1036.93,825.91 1036.70,824.77 1036.99,823.45"/>
    </edge>
    <edge id=":126932343_4" function="internal">
        <lane id=":126932343_4_0" index="0" allow="pedestrian delivery bicycle" speed="5.56" length="10.45" shape="1038.96,827.64 1036.18,826.85 1033.86,827.17 1032.01,828.59 1030.62,831.12"/>
    </edge>
    <edge id=":126932343_5" function="internal">
        <lane id=":126932343_5_0" index="0" allow="pedestrian delivery bicycle" speed="3.65" length="4.67" shape="1038.96,827.64 1037.54,827.88 1036.85,828.45 1036.89,829.34 1037.66,830.56"/>
    </edge>
    <edge id=":126932343_6" function="internal">
        <lane id=":126932343_6_0" index="0" allow="pedestrian delivery bicycle" speed="4.98" length="5.07" shape="1033.61,832.25 1034.29,831.03 1035.19,830.33 1036.31,830.18 1037.66,830.56"/>
    </edge>
    <edge id=":126932343_7" function="internal">
        <lane id=":126932343_7_0" index="0" allow="pedestrian delivery bicycle" speed="5.56" length="9.43" shape="1033.61,832.25 1036.99,823.45"/>
    </edge>
    <edge id=":126932343_8" function="internal">
        <lane id=":126932343_8_0" index="0" allow="pedestrian delivery bicycle" speed="3.65" length="4.67" shape="1033.61,832.25 1033.29,830.85 1032.68,830.19 1031.79,830.28 1030.62,831.12"/>
    </edge>
    <edge id=":126934535_0" function="internal">
        <lane id=":126934535_0_0" index="0" disallow="tram rail_urban rail rail_electric rail_fast ship" speed="11.11" length="9.40" shape="1096.93,789.99 1088.17,786.57"/>
    </edge>
    <edge id=":126934535_1" function="internal">
        <lane id=":126934535_1_0" index="0" allow="pedestrian delivery bicycle" speed="6.09" length="7.77" shape="1096.93,789.99 1094.28,789.18 1092.23,789.01 1090.78,789.49 1089.92,790.61"/>
    </edge>
    <edge id=":126934535_2" function="internal">
        <lane id=":126934535_2_0" index="0" allow="pedestrian delivery bicycle" speed="6.09" length="7.76" shape="1092.91,791.76 1093.03,790.35 1092.29,789.02 1090.67,787.75 1088.17,786.57"/>
    </edge>
    <edge id=":126934535_3" function="internal">
        <lane id=":126934535_3_0" index="0" allow="pedestrian delivery bicycle" speed="3.65" length="4.67" shape="1092.91,791.76 1092.60,790.36 1091.99,789.70 1091.10,789.78 1089.92,790.61"/>
    </edge>
    <edge id=":126934555_0" function="internal">
        <lane id=":126934555_0_0" index="0" allow="pedestrian delivery bicycle" speed="3.65" length="4.67" shape="1075.52,827.85 1075.83,829.26 1076.43,829.92 1077.32,829.84 1078.50,829.01"/>
    </edge>
    <edge id=":128974070_0" function="internal">
        <lane id=":128974070_0_0" index="0" allow="pedestrian delivery bicycle" speed="3.65" length="4.67" shape="861.01,739.75 861.35,741.15 861.97,741.79 862.85,741.69 864.01,740.83"/>
    </edge>
    <edge id=":128982276_0" function="internal">
        <lane id=":128982276_0_0" index="0" disallow="tram rail_urban rail rail_electric rail_fast ship" speed="11.11" length="9.40" shape="728.97,645.60 720.22,642.16"/>
    </edge>
    <edge id=":128982276_1" function="internal">
        <lane id=":128982276_1_0" index="0" allow="pedestrian delivery bicycle" speed="6.08" length="7.76" shape="728.97,645.60 726.33,644.77 724.28,644.59 722.83,645.06 721.97,646.18"/>
    </edge>
    <edge id=":128982276_2" function="internal">
        <lane id=":128982276_2_0" index="0" allow="pedestrian delivery bicycle" speed="6.09" length="7.76" shape="724.95,647.35 725.08,645.94 724.33,644.61 722.71,643.35 720.22,642.16"/>
    </edge>
    <edge id=":128982276_3" function="internal">
        <lane id=":128982276_3_0" index="0" allow="pedestrian delivery bicycle" speed="3.65" length="4.67" shape="724.95,647.35 724.64,645.94 724.04,645.28 723.15,645.36 721.97,646.18"/>
    </edge>
    <edge id=":128982298_0" function="internal">
        <lane id=":128982298_0_0" index="0" allow="pedestrian delivery bicycle" speed="3.65" length="4.67" shape="699.45,703.57 699.74,704.98 700.33,705.65 701.22,705.58 702.41,704.77"/>
    </edge>
    <edge id=":128982338_0" function="internal">
        <lane id=":128982338_0_0" index="0" allow="pedestrian delivery bicycle" speed="5.06" length="5.03" shape="704.66,690.49 703.98,691.68 703.08,692.37 701.95,692.55 700.60,692.23"/>
    </edge>
    <edge id=":128982338_1" function="internal">
        <lane id=":128982338_1_0" index="0" allow="pedestrian delivery bicycle" speed="5.56" length="9.42" shape="704.66,690.49 701.19,699.24"/>
    </edge>
    <edge id=":128982338_2" function="internal">
        <lane id=":128982338_2_0" index="0" allow="pedestrian delivery bicycle" speed="3.65" length="4.67" shape="704.66,690.49 704.97,691.90 705.57,692.56 706.46,692.48 707.64,691.65"/>
    </edge>
    <edge id=":128982338_3" function="internal">
        <lane id=":128982338_3_0" index="0" allow="pedestrian delivery bicycle" speed="5.56" length="9.45" shape="704.16,700.43 707.64,691.65"/>
    </edge>
    <edge id=":128982338_4" function="internal">
        <lane id=":128982338_4_0" index="0" allow="pedestrian delivery bicycle" speed="5.56" length="10.22" shape="704.16,700.43 704.82,697.71 704.45,695.43 703.05,693.61 700.60,692.23"/>
    </edge>
    <edge id=":128982338_5" function="internal">
        <lane id=":128982338_5_0" index="0" allow="pedestrian delivery bicycle" speed="3.65" length="4.67" shape="704.16,700.43 703.86,699.02 703.27,698.35 702.38,698.42 701.19,699.24"/>
    </edge>
    <edge id=":128982338_6" function="internal">
        <lane id=":128982338_6_0" index="0" allow="pedestrian delivery bicycle" speed="5.03" length="5.01" shape="699.44,695.22 700.64,695.89 701.33,696.79 701.52,697.90 701.19,699.24"/>
    </edge>
    <edge id=":128982338_7" function="internal">
        <lane id=":128982338_7_0" index="0" allow="pedestrian delivery bicycle" speed="5.56" length="10.19" shape="699.44,695.22 702.17,695.85 704.45,695.47 706.27,694.07 707.64,691.65"/>
    </edge>
    <edge id=":128982338_8" function="internal">
        <lane id=":128982338_8_0" index="0" allow="pedestrian delivery bicycle" speed="3.65" length="4.67" shape="699.44,695.22 700.85,694.91 701.51,694.30 701.43,693.41 700.60,692.23"/>
    </edge>
    <edge id=":130015092_0" function="internal">
        <lane id=":130015092_0_0" index="0" allow="pedestrian delivery bicycle" speed="3.65" length="4.67" shape="1279.21,887.55 1279.54,888.96 1280.15,889.61 1281.04,889.51 1282.21,888.67"/>
    </edge>
    <edge id=":130015093_0" function="internal">
        <lane id=":130015093_0_0" index="0" disallow="tram rail_urban rail rail_electric rail_fast ship" speed="11.11" length="9.40" shape="1257.37,853.28 1248.63,849.82"/>
    </edge>
    <edge id=":130015093_1" function="internal">
        <lane id=":130015093_1_0" index="0" allow="pedestrian delivery bicycle" speed="6.08" length="7.76" shape="1257.37,853.28 1254.73,852.44 1252.68,852.26 1251.23,852.73 1250.36,853.85"/>
    </edge>
    <edge id=":130015093_2" function="internal">
        <lane id=":130015093_2_0" index="0" allow="pedestrian delivery bicycle" speed="6.09" length="7.76" shape="1253.34,855.03 1253.47,853.62 1252.73,852.28 1251.11,851.01 1248.63,849.82"/>
    </edge>
    <edge id=":130015093_3" function="internal">
        <lane id=":130015093_3_0" index="0" allow="pedestrian delivery bicycle" speed="3.65" length="4.67" shape="1253.34,855.03 1253.04,853.62 1252.44,852.95 1251.55,853.03 1250.36,853.85"/>
    </edge>
    <edge id=":130015094_0" function="internal">
        <lane id=":130015094_0_0" index="0" allow="pedestrian delivery bicycle" speed="3.65" length="4.67" shape="1237.63,886.17 1237.94,887.58 1238.53,888.25 1239.42,888.17 1240.61,887.35"/>
    </edge>
    <edge id=":130015095_0" function="internal">
        <lane id=":130015095_0_0" index="0" disallow="tram rail_urban rail rail_electric rail_fast ship" speed="11.11" length="9.40" shape="1236.97,845.22 1228.23,841.76"/>
    </edge>
    <edge id=":130015095_1" function="internal">
        <lane id=":130015095_1_0" index="0" disallow="tram rail_urban rail rail_electric rail_fast ship" speed="6.06" length="7.81" shape="1236.97,845.22 1234.32,844.38 1232.27,844.22 1230.82,844.72 1229.97,845.88"/>
    </edge>
    <edge id=":130015095_2" function="internal">
        <lane id=":130015095_2_0" index="0" disallow="tram rail_urban rail rail_electric rail_fast ship" speed="6.13" length="7.78" shape="1232.96,847.00 1233.08,845.57 1232.32,844.22 1230.71,842.95 1228.23,841.76"/>
    </edge>
    <edge id=":130015095_3" function="internal">
        <lane id=":130015095_3_0" index="0" disallow="tram rail_urban rail rail_electric rail_fast ship" speed="3.65" length="4.67" shape="1232.96,847.00 1232.63,845.59 1232.02,844.94 1231.14,845.03 1229.97,845.88"/>
    </edge>
    <edge id=":130015096_0" function="internal">
        <lane id=":130015096_0_0" index="0" allow="pedestrian delivery bicycle" speed="5.75" length="6.60" shape="1207.08,907.59 1206.82,909.12 1207.24,910.47 1208.34,911.63 1210.13,912.61"/>
    </edge>
    <edge id=":130015096_1" function="internal">
        <lane id=":130015096_1_0" index="0" disallow="tram rail_urban rail rail_electric rail_fast ship" speed="3.65" length="4.67" shape="1207.08,907.59 1207.41,909.00 1208.02,909.65 1208.91,909.55 1210.08,908.70"/>
    </edge>
    <edge id=":130015096_2" function="internal">
        <lane id=":130015096_2_0" index="0" allow="pedestrian delivery bicycle" speed="3.52" length="1.85" shape="1211.36,909.66 1210.81,909.48 1210.34,909.35 1210.06,909.13 1210.08,908.70"/>
    </edge>
    <edge id=":130015098_0" function="internal">
        <lane id=":130015098_0_0" index="0" allow="pedestrian delivery bicycle" speed="3.65" length="4.67" shape="1216.47,915.26 1217.89,914.98 1218.57,914.40 1218.51,913.50 1217.71,912.30"/>
    </edge>
    <edge id=":130015100_0" function="internal">
        <lane id=":130015100_0_0" index="0" allow="pedestrian delivery bicycle" speed="3.65" length="4.67" shape="1192.71,896.12 1191.30,896.42 1190.63,897.02 1190.71,897.91 1191.53,899.10"/>
    </edge>
    <edge id=":130015101_0" function="internal">
        <lane id=":130015101_0_0" index="0" allow="pedestrian delivery bicycle" speed="5.01" length="5.03" shape="1210.01,899.67 1209.35,900.88 1208.46,901.59 1207.35,901.77 1206.00,901.45"/>
    </edge>
    <edge id=":130015101_1" function="internal">
        <lane id=":130015101_1_0" index="0" disallow="tram rail_urban rail rail_electric rail_fast ship" speed="13.89" length="8.25" shape="1210.01,899.67 1207.15,907.40"/>
    </edge>
    <edge id=":130015101_2" function="internal">