 <routes>

      <vType id="reroutingType" vClass="bicycle">
        <param key="has.rerouting.device" value="true"/>
      </vType>

 </routes>